build/lib/powerfulcases/cases/case5/case5.raw
0, 100, 33, 0, 0, 60  / 27-Oct-2025 14:25:07 - MATPOWER 8.0


     1, 'BUS 1       ',       230, 2,    1,    1, 1,           1,  3.27336085,  1.1,  0.9,  1.1,  0.9
     2, 'BUS 2       ',       230, 1,    1,    1, 1, 0.989261237, -0.759269285,  1.1,  0.9,  1.1,  0.9
     3, 'BUS 3       ',       230, 2,    1,    1, 1,           1, -0.492258677,  1.1,  0.9,  1.1,  0.9
     4, 'BUS 4       ',       230, 3,    1,    1, 1,           1,           0,  1.1,  0.9,  1.1,  0.9
     5, 'BUS 5       ',       230, 2,    1,    1, 1,           1,    4.112031,  1.1,  0.9,  1.1,  0.9
0 / END OF BUS DATA, BEGIN LOAD DATA
     2,  1, 1,    1,    1,       300,     98.61, 0, 0, 0, 0, 1, 1, 0
     3,  1, 1,    1,    1,       300,     98.61, 0, 0, 0, 0, 1, 1, 0
     4,  1, 1,    1,    1,       400,    131.47, 0, 0, 0, 0, 1, 1, 0
0 / END OF LOAD DATA, BEGIN FIXED SHUNT DATA
0 / END OF FIXED SHUNT DATA, BEGIN GENERATOR DATA
     1,  1,        40,  5.852411,        30,       -30,        1, 0,     100, 0, 1, 0, 0, 1, 1, 100,        40,         0, 1, 1, 0, 1, 0, 1, 0, 1, 0, 1
     1,  1,       170,  24.87275,     127.5,    -127.5,        1, 0,     100, 0, 1, 0, 0, 1, 1, 100,       170,         0, 1, 1, 0, 1, 0, 1, 0, 1, 0, 1
     3,  1,    323.49,  194.6547,       390,      -390,        1, 0,     100, 0, 1, 0, 0, 1, 1, 100,       520,         0, 1, 1, 0, 1, 0, 1, 0, 1, 0, 1
     4,  1,   5.02718,  184.1229,       150,      -150,        1, 0,     100, 0, 1, 0, 0, 1, 1, 100,       200,         0, 1, 1, 0, 1, 0, 1, 0, 1, 0, 1
     5,  1,    466.51, -38.20962,       450,      -450,        1, 0,     100, 0, 1, 0, 0, 1, 1, 100,       600,         0, 1, 1, 0, 1, 0, 1, 0, 1, 0, 1
0 / END OF GENERATOR DATA, BEGIN BRANCH DATA
     1,      2, 1,  0.00281,   0.0281,  0.00712,     400,     400,     400, 0, 0, 0, 0, 1, 1, 0, 1, 1, 0, 1, 0, 1, 0, 1
     1,      4, 1,  0.00304,   0.0304,  0.00658,       0,       0,       0, 0, 0, 0, 0, 1, 1, 0, 1, 1, 0, 1, 0, 1, 0, 1
     1,      5, 1,  0.00064,   0.0064,  0.03126,       0,       0,       0, 0, 0, 0, 0, 1, 1, 0, 1, 1, 0, 1, 0, 1, 0, 1
     2,      3, 1,  0.00108,   0.0108,  0.01852,       0,       0,       0, 0, 0, 0, 0, 1, 1, 0, 1, 1, 0, 1, 0, 1, 0, 1
     3,      4, 1,  0.00297,   0.0297,  0.00674,       0,       0,       0, 0, 0, 0, 0, 1, 1, 0, 1, 1, 0, 1, 0, 1, 0, 1
     4,      5, 1,  0.00297,   0.0297,  0.00674,     240,     240,     240, 0, 0, 0, 0, 1, 1, 0, 1, 1, 0, 1, 0, 1, 0, 1
0 / END OF BRANCH DATA, BEGIN TRANSFORMER DATA
0 / END OF TRANSFORMER DATA, BEGIN AREA DATA
0 / END OF AREA DATA, BEGIN TWO-TERMINAL DC DATA
0 / END OF TWO-TERMINAL DC DATA, BEGIN VOLTAGE SOURCE CONVERTER DATA
0 / END OF VOLTAGE SOURCE CONVERTER DATA, BEGIN IMPEDANCE CORRECTION DATA
0 / END OF IMPEDANCE CORRECTION DATA, BEGIN MULTI-TERMINAL DC DATA
0 / END OF MULTI-TERMINAL DC DATA, BEGIN MULTI-SECTION LINE DATA
0 / END OF MULTI-SECTION LINE DATA, BEGIN ZONE DATA
0 / END OF ZONE DATA, BEGIN INTER-AREA TRANSFER DATA
0 / END OF INTER-AREA TRANSFER DATA, BEGIN OWNER DATA
0 / END OF OWNER DATA, BEGIN FACTS CONTROL DEVICE DATA
0 / END OF FACTS CONTROL DEVICE DATA, BEGIN SWITCHED SHUNT DATA
0 / END OF SWITCHED SHUNT DATA, BEGIN GNE DEVICE DATA
0 / END OF GNE DEVICE DATA, BEGIN INDUCTION MACHINE DATA
0 / END OF INDUCTION MACHINE DATA
Q
